CM --- NEC2 Input File created or edited by xnec2c 4.1.5 ---
CE --- End Comments ---
GW     1    15  -2,50000E-01  0,00000E+00  1,00000E+00  2,50000E-01  0,00000E+00  1,00000E+00  5,00000E-03
GW     2    15  -2,10000E-01  2,00000E-01  1,00000E+00  2,10000E-01  2,00000E-01  1,00000E+00  5,00000E-03
GW     3    15  -2,00000E-01  3,80000E-01  1,00000E+00  2,00000E-01  3,80000E-01  1,00000E+00  5,00000E-03
GW     4    15  -1,90000E-01  6,20000E-01  1,00000E+00  1,90000E-01  6,20000E-01  1,00000E+00  5,00000E-03
GW     5    15  -2,05000E-01  8,20000E-01  1,00000E+00  2,05000E-01  8,20000E-01  1,00000E+00  5,00000E-03
GE     0     0   0,00000E+00  0,00000E+00  0,00000E+00  0,00000E+00  0,00000E+00  0,00000E+00  0,00000E+00
EX     0     2     8      0  1,00000E+00  0,00000E+00  0,00000E+00  0,00000E+00  0,00000E+00  0,00000E+00
FR     0    51     0      0  2,50000E+02  2,00000E+00  3,50000E+02  0,00000E+00  0,00000E+00  0,00000E+00
NH     0     0     0      0  0,00000E+00  0,00000E+00  0,00000E+00  0,00000E+00  0,00000E+00  0,00000E+00
NE     0    10     1     10 -1,35000E+00  0,00000E+00 -1,35000E+00  3,00000E-01  0,00000E+00  3,00000E-01
RP     0    37    37  1000  0,00000E+00  0,00000E+00  2,50000E+00  1,00000E+01  0,00000E+00  0,00000E+00
GN     2     0     0      0  1,20000E+01  1,00000E-02  0,00000E+00  0,00000E+00  0,00000E+00  0,00000E+00
EN     0     0     0      0  0,00000E+00  0,00000E+00  0,00000E+00  0,00000E+00  0,00000E+00  0,00000E+00
