CM Example 1 :	Dipole in free space 	
CM See GetStarted.txt
CM 
CM 
CM 
CM 
CE
GW	1	15	0.25	0	01	-0.25	0	01	0.005	'Wire 1, 9 segments, halve wavelength long.
GW	2	15	0.21	0.20	01	-0.21	0.20	01	0.05
GW	3	15	0.20	0.38	01	-0.20	0.38	01	0.005
GW	4	15	0.19	0.62	01	-0.19	0.62	01	0.005
GW	5	15	0.205	0.82	01	-0.205	0.82	01	0.005
GE	1
GN	2	0	0	0	4	0.003
EK
EX	0	2	8	0	1	0	0	'Voltage source (1+j0) at wire 1 segment 5.
FR	0	0	0	0	300	0
EN
